<nodes>
	<node id="0" x="0.0" y="0.0"/>
	<node id="1" x="10.0" y="0.0"/>
	<node id="2" x="5010.0" y="0.0"/>
	<node id="3" x="5990.0" y="0.0"/>
	<node id="4" x="6000.0" y="0.0"/>
</nodes>
