<types>
	<type id="type0" numLanes="2" speed="33.33"/>
	<type id="type1" numLanes="2" speed="20.00"/>
</types>
